98
	Energy:     532.2938354
C        102.24083       20.39526       -0.00015
C        103.35726       21.37756        0.00012
C        104.71941       21.03551       -0.00004
C        105.09090       19.71282        0.00024
C        104.12500       18.73823        0.00008
C        102.77098       19.08150        0.00004
O        105.65256       22.03981       -0.00077
O        104.44225       17.41835       -0.00049
H        103.38129       22.41856        0.00006
H        106.13783       19.44644        0.00017
H        102.23185       18.26386        0.00003
C        105.70886       15.42961       -0.00159
C        107.76166       23.20787        0.00461
C        107.12156       14.86348       -0.00103
C        109.29110       23.04985       -0.00311
C        107.07779       13.34288        0.00180
C        110.00663       24.41012       -0.00342
C        108.48496       12.76595       -0.00151
C        111.53303       24.26149        0.00398
C        108.43784       11.24506        0.00209
C        112.23962       25.62355       -0.00481
C        109.84671       10.67092       -0.00200
C        113.76139       25.47034        0.00436
C        109.81200        9.15496        0.00041
C        114.47404       26.81746       -0.00059
C        105.73712       16.94137        0.00091
C        107.02814       21.86084        0.00141
C        100.05070       24.09003        0.00022
C        100.78499       23.00893        0.00049
C        100.02765       21.90160        0.00662
C         98.76282       23.66025        0.00421
N         98.70356       22.30075       -0.02782
C         97.66856       24.61372       -0.00019
C         96.38410       24.23446       -0.00480
N         95.92808       22.95693        0.01192
C         94.57476       23.07624       -0.00529
C         95.33365       25.13540       -0.00206
C         94.18714       24.40100       -0.00186
C         93.71035       22.08455        0.00063
C         94.09405       20.68534        0.00424
N         95.36051       20.20910       -0.02682
C         93.87151       18.50623        0.00045
C         93.16277       19.67137        0.00010
C         97.61068       18.37666       -0.00499
N         98.11919       19.65023        0.01214
C         99.49014       19.49744       -0.00494
C         99.76093       18.13620       -0.00156
C         98.61971       17.46000       -0.00158
C        100.57254       20.63612       -0.00050
C         96.21422       17.96291       -0.00065
C         95.21341       18.85350        0.00630
H        100.49247       25.08680       -0.00070
H        101.73008       23.10931       -0.00081
C         98.01374       26.03559        0.00021
H         95.39293       26.21282        0.00107
H         93.17594       24.80219        0.00110
H         93.44805       17.51372       -0.00067
H         92.07928       19.76720       -0.00062
H        100.57500       17.54330        0.00129
H         98.59776       16.36489        0.00106
C         95.91648       16.52979       -0.00023
C         95.67872       15.34447        0.00008
C         98.30598       27.20701        0.00056
Zn        97.04856       21.29725        0.03750
H        106.26586       17.30045        0.90890
H        106.26942       17.30288       -0.90428
H        105.16971       15.08163        0.90245
H        105.17811       15.08724       -0.91194
H        107.65951       15.21622        0.90342
H        107.65412       15.21257       -0.90955
H        106.53673       12.99207       -0.90181
H        106.54480       12.99733        0.91154
H        109.02609       13.11643        0.90206
H        109.01850       13.11145       -0.91092
H        107.89835       10.89324       -0.90195
H        107.90561       10.89779        0.91133
H        110.38987       11.01837        0.90059
H        110.37812       11.01186       -0.91308
H        109.29731        8.78990        0.91172
H        110.84841        8.76275       -0.01217
H        109.27597        8.78952       -0.89842
H        107.32265       21.29315       -0.90476
H        107.31870       21.30098        0.91306
H        107.46152       23.77959       -0.89712
H        107.47448       23.75547        0.92342
H        109.59721       22.48110        0.89918
H        109.58764       22.49834       -0.91781
H        109.70177       24.98024        0.89859
H        109.71205       24.96171       -0.91862
H        111.84196       23.69253       -0.89721
H        111.83122       23.71267        0.91978
H        111.93697       26.19418        0.89734
H        111.94794       26.17428       -0.92076
H        114.07844       24.90504       -0.89566
H        114.06367       24.92829        0.92169
H        114.22077       27.38686       -0.91730
H        115.57366       26.65906        0.02493
H        114.18315       27.40861        0.89089
